---- qbsp / ericw-tools 2.0.0-alpha8-26-ged62ec10 ----

--- Options Summary ---
    "nocolor" was set to "1" (from command line)

Input file: C:\Users\jerma\OneDrive\Desktop\GameEngineScripting\abandoned-aquarium\abandonedaquarium-compile.map
Output file: C:\Users\jerma\OneDrive\Desktop\GameEngineScripting\abandoned-aquarium\abandonedaquarium.bsp

INFO: using built-in palette.
       43 entities
       24 unique textures
      231 texinfos
    1,034 unique planes

INFO: world extents calculated to 2984 units
      341 brushes
    2,070 sides
      287 side bevels

            0 texture frames added
WARNING: unable to find texture skip
Processing hull 0...
    326 SOLID brushes
     15 WATER | Q2_UNUSED_8 brushes
    341 brushes total
    2,070 visible sides
INFO: calculating BSP for 341 brushes with 2070 sides
      341 brushes
    2,070 visible faces
    4,311 nodes
    3,930 expensive split nodes
      381 mid-split nodes
    4,312 leaves
      121 WATER | Q2_UNUSED_8 leafs
    1,900 EMPTY leafs
    2,291 SOLID leafs
    4,312 leafs total
    38 max tree height
    16 avg tree height
    64 tiny portals
    17,847 tree portals
    839 outside leaves
    0 detail filled leafs
      341 brushes
      943 visible faces
    1,127 non-visible faces
    2,768 nodes
    1,213 non-visible nodes
    2,768 expensive split nodes
    2,769 leaves
       52 WATER | Q2_UNUSED_8 leafs
    1,099 EMPTY leafs
    1,618 SOLID leafs
    2,769 leafs total
    37 max tree height
    16 avg tree height
    40 tiny portals
    12,241 tree portals
    631 outside leaves
    0 detail filled leafs
    40 tiny portals
    12,241 tree portals
    2,779 sides visible
    2,605 makefaces
      910 merged
      718 subdivided
    1,614 nodes pruned
    14 tiny portals
      520 player-occupiable leaves
      467 clusters of leaves
    1,283 vis portals
      635 SOLID leafs
       45 WATER | Q2_UNUSED_8 leafs
      475 EMPTY leafs
    1,155 leafs total
    37 max tree height
    15 avg tree height
    1,953 edges added by tjunctions
    2,310 faces optimized through MWT
    6,636 triangles computed from MWT
      463 faces created via optimization of MWT triangles
    6,556 edges
    2,876 faces
Processing hull 1...
Processing hull 2...
WARNING: worldspawn at 0 0 0 has long value for key wad (length 249 >= 127)
Writing abandonedaquarium.bsp as Quake BSP bsp29
Wrote abandonedaquarium.bsp

count   lump name    byte size 
      1 models               64
    887 planes            17740
   3204 vertexes          38448
   1154 nodes             27696
    159 texinfos           6360
   2876 faces             57520
   3057 clipnodes         24456
    521 leafs             14588
   3460 marksurfaces       6920
   6557 edges             26228
  12491 surfedges         49964
     24 textures         222684
        lightdata             0
        visdata               0
        entdata            3175

0.843s seconds elapsed


