---- qbsp / ericw-tools 2.0.0-alpha8-26-ged62ec10 ----

--- Options Summary ---
    "nocolor" was set to "1" (from command line)

Input file: C:\Users\jerma\OneDrive\Desktop\GameEngineScripting\abandoned-aquarium\abandonedaquarium-compile.map
Output file: C:\Users\jerma\OneDrive\Desktop\GameEngineScripting\abandoned-aquarium\abandonedaquarium.bsp

INFO: using built-in palette.
      123 entities
       23 unique textures
      225 texinfos
    1,154 unique planes

INFO: world extents calculated to 2984 units
      516 brushes
    3,122 sides
      289 side bevels

            0 texture frames added
WARNING: unable to find texture skip
Processing hull 0...
    445 SOLID brushes
     69 WATER | Q2_UNUSED_8 brushes
    514 brushes total
    3,110 visible sides
INFO: calculating BSP for 514 brushes with 3110 sides
      514 brushes
    3,110 visible faces
    5,879 nodes
    5,238 expensive split nodes
      641 mid-split nodes
    5,880 leaves
      385 WATER | Q2_UNUSED_8 leafs
    2,165 EMPTY leafs
    3,330 SOLID leafs
    5,880 leafs total
    36 max tree height
    16 avg tree height
    54 tiny portals
    24,428 tree portals
    1,213 outside leaves
    0 detail filled leafs
      514 brushes
    1,427 visible faces
    1,683 non-visible faces
    4,030 nodes
    1,661 non-visible nodes
    4,030 expensive split nodes
    4,031 leaves
      225 WATER | Q2_UNUSED_8 leafs
    1,414 EMPTY leafs
    2,392 SOLID leafs
    4,031 leafs total
    38 max tree height
    17 avg tree height
    59 tiny portals
    17,844 tree portals
    841 outside leaves
    0 detail filled leafs
    59 tiny portals
    17,844 tree portals
    5,482 sides visible
    4,481 makefaces
    1,767 merged
    1,115 subdivided
    2,419 nodes pruned
    10 tiny portals
      798 player-occupiable leaves
      576 clusters of leaves
    1,640 vis portals
      814 SOLID leafs
      207 WATER | Q2_UNUSED_8 leafs
      591 EMPTY leafs
    1,612 leafs total
    38 max tree height
    16 avg tree height
     2,977 edges added by tjunctions
     3,706 faces optimized through MWT
    10,487 triangles computed from MWT
       748 faces created via optimization of MWT triangles
    11,572 edges
     4,577 faces
Processing hull 1...
Processing hull 2...
WARNING: worldspawn at 0 0 0 has long value for key wad (length 249 >= 127)
Writing abandonedaquarium.bsp as Quake BSP bsp29
Wrote abandonedaquarium.bsp

count   lump name    byte size 
      3 models              192
    967 planes            19340
   4689 vertexes          56268
   1623 nodes             38952
    182 texinfos           7280
   4589 faces             91780
   3703 clipnodes         29624
    813 leafs             22764
   5900 marksurfaces      11800
  11597 edges             46388
  19812 surfedges         79248
     23 textures         168688
        lightdata             0
        visdata               0
        entdata            7729

1.390s seconds elapsed


