---- qbsp / ericw-tools 2.0.0-alpha8-26-ged62ec10 ----

--- Options Summary ---
    "nocolor" was set to "1" (from command line)

Input file: C:\Users\jerma\OneDrive\Desktop\GameEngineScripting\abandoned-aquarium\abandonedaquarium-compile.map
Output file: C:\Users\jerma\OneDrive\Desktop\GameEngineScripting\abandoned-aquarium\abandonedaquarium.bsp

INFO: using built-in palette.
      123 entities
       23 unique textures
      225 texinfos
    1,126 unique planes

INFO: world extents calculated to 2984 units
      458 brushes
    2,774 sides
      289 side bevels

            0 texture frames added
WARNING: unable to find texture skip
Processing hull 0...
    400 SOLID brushes
     56 WATER | Q2_UNUSED_8 brushes
    456 brushes total
    2,762 visible sides
INFO: calculating BSP for 456 brushes with 2762 sides
      456 brushes
    2,762 visible faces
    5,697 nodes
    5,034 expensive split nodes
      663 mid-split nodes
    5,698 leaves
      344 WATER | Q2_UNUSED_8 leafs
    2,191 EMPTY leafs
    3,163 SOLID leafs
    5,698 leafs total
    32 max tree height
    16 avg tree height
    57 tiny portals
    23,855 tree portals
    1,226 outside leaves
    0 detail filled leafs
      456 brushes
    1,255 visible faces
    1,507 non-visible faces
    3,814 nodes
    1,567 non-visible nodes
    3,814 expensive split nodes
    3,815 leaves
      204 WATER | Q2_UNUSED_8 leafs
    1,336 EMPTY leafs
    2,275 SOLID leafs
    3,815 leafs total
    38 max tree height
    17 avg tree height
    51 tiny portals
    16,814 tree portals
    783 outside leaves
    0 detail filled leafs
    51 tiny portals
    16,814 tree portals
    4,801 sides visible
    3,977 makefaces
    1,549 merged
      979 subdivided
    2,296 nodes pruned
    12 tiny portals
      757 player-occupiable leaves
      551 clusters of leaves
    1,538 vis portals
      762 SOLID leafs
      185 WATER | Q2_UNUSED_8 leafs
      572 EMPTY leafs
    1,519 leafs total
    38 max tree height
    16 avg tree height
    2,638 edges added by tjunctions
    3,290 faces optimized through MWT
    9,311 triangles computed from MWT
      639 faces created via optimization of MWT triangles
    10,085 edges
     4,046 faces
Processing hull 1...
Processing hull 2...
WARNING: worldspawn at 0 0 0 has long value for key wad (length 249 >= 127)
Writing abandonedaquarium.bsp as Quake BSP bsp29
Wrote abandonedaquarium.bsp

count   lump name    byte size 
      3 models              192
    958 planes            19160
   4263 vertexes          51156
   1530 nodes             36720
    177 texinfos           7080
   4058 faces             81160
   3542 clipnodes         28336
    772 leafs             21616
   5157 marksurfaces      10314
  10110 edges             40440
  17568 surfedges         70272
     23 textures         168688
        lightdata             0
        visdata               0
        entdata            7729

0.824s seconds elapsed


