---- qbsp / ericw-tools 2.0.0-alpha8-26-ged62ec10 ----

--- Options Summary ---
    "nocolor" was set to "1" (from command line)

Input file: C:\Users\jerma\OneDrive\Desktop\GameEngineScripting\abandoned-aquarium\abandonedaquarium-compile.map
Output file: C:\Users\jerma\OneDrive\Desktop\GameEngineScripting\abandoned-aquarium\abandonedaquarium.bsp

INFO: using built-in palette.
     43 entities
      6 unique textures
     90 texinfos
    900 unique planes

INFO: world extents calculated to 2984 units
      277 brushes
    1,684 sides
      256 side bevels

            0 texture frames added
WARNING: unable to find texture skip
Processing hull 0...
    277 SOLID brushes
    277 brushes total
    1,684 visible sides
INFO: calculating BSP for 277 brushes with 1684 sides
      277 brushes
    1,684 visible faces
    3,158 nodes
    2,862 expensive split nodes
      296 mid-split nodes
    3,159 leaves
    1,391 EMPTY leafs
    1,768 SOLID leafs
    3,159 leafs total
    35 max tree height
    15 avg tree height
    47 tiny portals
    13,055 tree portals
    670 outside leaves
    0 detail filled leafs
    277 brushes
    790 visible faces
    894 non-visible faces
    2,149 nodes
      921 non-visible nodes
    2,149 expensive split nodes
    2,150 leaves
      827 EMPTY leafs
    1,323 SOLID leafs
    2,150 leafs total
    37 max tree height
    17 avg tree height
    38 tiny portals
    9,424 tree portals
    411 outside leaves
    0 detail filled leafs
    38 tiny portals
    9,424 tree portals
    2,056 sides visible
    2,056 makefaces
      668 merged
      607 subdivided
    1,131 nodes pruned
    15 tiny portals
      416 player-occupiable leaves
      416 clusters of leaves
    1,132 vis portals
      603 SOLID leafs
      416 EMPTY leafs
    1,019 leafs total
    37 max tree height
    16 avg tree height
    1,721 edges added by tjunctions
    1,870 faces optimized through MWT
    5,491 triangles computed from MWT
      421 faces created via optimization of MWT triangles
    5,324 edges
    2,416 faces
Processing hull 1...
Processing hull 2...
Writing abandonedaquarium.bsp as Quake BSP bsp29
Wrote abandonedaquarium.bsp

count   lump name    byte size 
      1 models               64
    794 planes            15880
   2721 vertexes          32652
   1018 nodes             24432
     73 texinfos           2920
   2416 faces             48320
   2971 clipnodes         23768
    417 leafs             11676
   2763 marksurfaces       5526
   5325 edges             21300
  10448 surfedges         41792
      6 textures          92708
        lightdata             0
        visdata               0
        entdata            3022

0.476s seconds elapsed


