---- qbsp / ericw-tools 2.0.0-alpha8-26-ged62ec10 ----

--- Options Summary ---
    "nocolor" was set to "1" (from command line)

Input file: C:\Users\jerma\OneDrive\Desktop\GameEngineScripting\abandoned-aquarium\abandonedaquarium-compile.map
Output file: C:\Users\jerma\OneDrive\Desktop\GameEngineScripting\abandoned-aquarium\abandonedaquarium.bsp

INFO: using built-in palette.
     31 entities
      6 unique textures
     90 texinfos
    898 unique planes

INFO: world extents calculated to 2984 units
      274 brushes
    1,668 sides
      254 side bevels

            0 texture frames added
WARNING: unable to find texture skip
Processing hull 0...
    274 SOLID brushes
    274 brushes total
    1,668 visible sides
INFO: calculating BSP for 274 brushes with 1668 sides
      274 brushes
    1,668 visible faces
    3,149 nodes
    2,853 expensive split nodes
      296 mid-split nodes
    3,150 leaves
    1,406 EMPTY leafs
    1,744 SOLID leafs
    3,150 leafs total
    35 max tree height
    15 avg tree height
    47 tiny portals
    13,021 tree portals
    679 outside leaves
    0 detail filled leafs
    274 brushes
    780 visible faces
    888 non-visible faces
    2,120 nodes
      913 non-visible nodes
    2,120 expensive split nodes
    2,121 leaves
      819 EMPTY leafs
    1,302 SOLID leafs
    2,121 leafs total
    37 max tree height
    17 avg tree height
    38 tiny portals
    9,335 tree portals
    407 outside leaves
    0 detail filled leafs
    38 tiny portals
    9,335 tree portals
    2,039 sides visible
    2,039 makefaces
      670 merged
      609 subdivided
    1,117 nodes pruned
    15 tiny portals
      412 player-occupiable leaves
      412 clusters of leaves
    1,126 vis portals
      592 SOLID leafs
      412 EMPTY leafs
    1,004 leafs total
    37 max tree height
    16 avg tree height
    1,719 edges added by tjunctions
    1,853 faces optimized through MWT
    5,459 triangles computed from MWT
      433 faces created via optimization of MWT triangles
    5,303 edges
    2,411 faces
Processing hull 1...
Processing hull 2...
Writing abandonedaquarium.bsp as Quake BSP bsp29
Wrote abandonedaquarium.bsp

count   lump name    byte size 
      1 models               64
    794 planes            15880
   2707 vertexes          32484
   1003 nodes             24072
     73 texinfos           2920
   2411 faces             48220
   2913 clipnodes         23304
    413 leafs             11564
   2750 marksurfaces       5500
   5304 edges             21216
  10406 surfedges         41624
      6 textures          92708
        lightdata             0
        visdata               0
        entdata            2372

0.562s seconds elapsed


