---- qbsp / ericw-tools 2.0.0-alpha8-26-ged62ec10 ----

--- Options Summary ---
    "nocolor" was set to "1" (from command line)

Input file: C:\Users\jerma\OneDrive\Desktop\GameEngineScripting\abandoned-aquarium\abandonedaquarium-compile.map
Output file: C:\Users\jerma\OneDrive\Desktop\GameEngineScripting\abandoned-aquarium\abandonedaquarium.bsp

INFO: using built-in palette.
     15 entities
      6 unique textures
     51 texinfos
    298 unique planes

INFO: world extents calculated to 2984 units
    111 brushes
    668 sides
     29 side bevels

            0 texture frames added
WARNING: unable to find texture skip
Processing hull 0...
    111 SOLID brushes
    111 brushes total
    668 visible sides
INFO: calculating BSP for 111 brushes with 668 sides
    111 brushes
    668 visible faces
    1,114 nodes
    1,019 expensive split nodes
       95 mid-split nodes
    1,115 leaves
      567 EMPTY leafs
      548 SOLID leafs
    1,115 leafs total
    21 max tree height
    12 avg tree height
    4,810 tree portals
WARNING: Reached occupant "info_player_start" at (-736 176 40), no filling performed.
Leak file written to abandonedaquarium.pts
            5 portals written to abandonedaquarium.leak.prt
    4,810 tree portals
    1,685 sides visible
    1,685 makefaces
      348 merged
      924 subdivided
    95 nodes pruned
      567 EMPTY leafs
      453 SOLID leafs
    1,020 leafs total
    21 max tree height
    12 avg tree height
    1,872 edges added by tjunctions
    2,221 faces optimized through MWT
    6,326 triangles computed from MWT
      472 faces created via optimization of MWT triangles
    6,254 edges
    2,733 faces
Processing hull 1...
Processing hull 2...
Writing abandonedaquarium.bsp as Quake BSP bsp29
Wrote abandonedaquarium.bsp

count   lump name    byte size 
      1 models               64
    308 planes             6160
   2802 vertexes          33624
   1019 nodes             24456
     48 texinfos           1920
   2733 faces             54660
    853 clipnodes          6824
    568 leafs             15904
   3041 marksurfaces       6082
   6255 edges             25020
  11832 surfedges         47328
      6 textures          92708
        lightdata             0
        visdata               0
        entdata            1203

0.176s seconds elapsed


