---- qbsp / ericw-tools 2.0.0-alpha8-26-ged62ec10 ----

--- Options Summary ---
    "nocolor" was set to "1" (from command line)

Input file: C:\Users\jerma\OneDrive\Desktop\GameEngineScripting\abandoned-aquarium\abandonedaquarium-compile.map
Output file: C:\Users\jerma\OneDrive\Desktop\GameEngineScripting\abandoned-aquarium\abandonedaquarium.bsp

INFO: using built-in palette.
      4 entities
      5 unique textures
     35 texinfos
    202 unique planes

INFO: world extents calculated to 2984 units
     71 brushes
    428 sides
     11 side bevels

            0 texture frames added
WARNING: unable to find texture skip
Processing hull 0...
    71 SOLID brushes
    71 brushes total
    428 visible sides
INFO: calculating BSP for 71 brushes with 428 sides
     71 brushes
    428 visible faces
    670 nodes
    629 expensive split nodes
     41 mid-split nodes
    671 leaves
    323 EMPTY leafs
    348 SOLID leafs
    671 leafs total
    19 max tree height
    12 avg tree height
    1 tiny portals
    2,951 tree portals
WARNING: Reached occupant "info_player_start" at (-144 -192 40), no filling performed.
Leak file written to abandonedaquarium.pts
            9 portals written to abandonedaquarium.leak.prt
    1 tiny portals
    2,951 tree portals
    1,023 sides visible
    1,023 makefaces
      222 merged
      691 subdivided
    84 nodes pruned
    323 EMPTY leafs
    264 SOLID leafs
    587 leafs total
    19 max tree height
    12 avg tree height
    1,129 edges added by tjunctions
    1,464 faces optimized through MWT
    4,072 triangles computed from MWT
      267 faces created via optimization of MWT triangles
    3,998 edges
    1,759 faces
Processing hull 1...
Processing hull 2...
Writing abandonedaquarium.bsp as Quake BSP bsp29
Wrote abandonedaquarium.bsp

count   lump name    byte size 
      1 models               64
    181 planes             3620
   1830 vertexes          21960
    586 nodes             14064
     32 texinfos           1280
   1759 faces             35180
    384 clipnodes          3072
    324 leafs              9072
   1862 marksurfaces       3724
   3999 edges             15996
   7618 surfedges         30472
      5 textures          70904
        lightdata             0
        visdata               0
        entdata             377

0.109s seconds elapsed


