---- qbsp / ericw-tools 2.0.0-alpha8-26-ged62ec10 ----

--- Options Summary ---
    "nocolor" was set to "1" (from command line)

Input file: C:\Users\jerma\OneDrive\Desktop\GameEngineScripting\abandoned-aquarium\abandonedaquarium-compile.map
Output file: C:\Users\jerma\OneDrive\Desktop\GameEngineScripting\abandoned-aquarium\abandonedaquarium.bsp

INFO: using built-in palette.
     32 entities
      7 unique textures
     83 texinfos
    740 unique planes

INFO: world extents calculated to 2984 units
      217 brushes
    1,304 sides
      105 side bevels

            0 texture frames added
WARNING: unable to find texture skip
WARNING: unable to find texture __TB_empty
Processing hull 0...
    217 SOLID brushes
    217 brushes total
    1,304 visible sides
INFO: calculating BSP for 217 brushes with 1304 sides
    217 brushes
    986 visible faces
    318 non-visible faces
    2,994 nodes
    1,075 non-visible nodes
    2,786 expensive split nodes
      208 mid-split nodes
    2,995 leaves
    1,076 EMPTY leafs
    1,919 SOLID leafs
    2,995 leafs total
    36 max tree height
    16 avg tree height
    122 tiny portals
    12,083 tree portals
WARNING: Reached occupant "info_player_deathmatch" at (-704 144 40), no filling performed.
Leak file written to abandonedaquarium.pts
            4 portals written to abandonedaquarium.leak.prt
    122 tiny portals
    12,083 tree portals
    3,318 sides visible
    3,318 makefaces
      815 merged
      936 subdivided
    716 nodes pruned
    1,076 EMPTY leafs
    1,203 SOLID leafs
    2,279 leafs total
    36 max tree height
    15 avg tree height
    2,478 edges added by tjunctions
    2,871 faces optimized through MWT
    8,286 triangles computed from MWT
      674 faces created via optimization of MWT triangles
    8,324 edges
    3,635 faces
Processing hull 1...
Processing hull 2...
Writing abandonedaquarium.bsp as Quake BSP bsp29
Wrote abandonedaquarium.bsp

count   lump name    byte size 
      1 models               64
    792 planes            15840
   3863 vertexes          46356
   2278 nodes             54672
     74 texinfos           2960
   3635 faces             72700
   3881 clipnodes         31048
   1077 leafs             30156
   4320 marksurfaces       8640
   8325 edges             33300
  15646 surfedges         62584
      7 textures          92712
        lightdata             0
        visdata               0
        entdata            2372

0.363s seconds elapsed


